Version 4
SHEET 1 880 680
WIRE 128 -32 -16 -32
WIRE 384 -32 208 -32
WIRE -16 -16 -16 -32
WIRE 208 48 208 -32
WIRE 128 64 128 -32
WIRE 176 64 128 64
WIRE 384 64 384 48
WIRE 144 80 64 80
WIRE 288 80 240 80
WIRE 64 96 64 80
WIRE 144 96 144 80
WIRE 176 96 144 96
WIRE 288 112 288 80
WIRE 368 112 288 112
WIRE 368 128 368 112
WIRE 208 144 208 112
WIRE 64 224 64 176
WIRE 368 240 368 208
WIRE 208 256 208 224
FLAG 64 224 0
FLAG 208 256 0
FLAG 384 64 0
FLAG 368 240 0
FLAG -16 64 0
DATAFLAG 368 112 "round($*100)/100"
SYMBOL voltage 64 80 R0
WINDOW 123 0 0 Left 0
WINDOW 39 0 0 Left 0
SYMATTR InstName Vin
SYMATTR Value 1V
SYMBOL Opamps\\UniversalOpamp2 208 80 R0
SYMATTR InstName U1
SYMBOL res 352 112 R0
SYMATTR InstName RLarge
SYMATTR Value 1E6
SYMBOL voltage 208 240 R180
WINDOW 0 24 96 Left 2
WINDOW 3 24 16 Left 2
WINDOW 123 0 0 Left 0
WINDOW 39 0 0 Left 0
SYMATTR InstName V2
SYMATTR Value 5V
SYMBOL voltage 384 -48 R0
WINDOW 123 0 0 Left 0
WINDOW 39 0 0 Left 0
SYMATTR InstName V1
SYMATTR Value 5V
SYMBOL voltage -16 -32 R0
WINDOW 123 0 0 Left 0
WINDOW 39 0 0 Left 0
SYMATTR InstName V3
SYMATTR Value 1.5V
TEXT 288 80 Left 2 !.op
TEXT 280 120 Left 2 ;Vout
