Version 4
SHEET 1 880 872
WIRE -240 336 -352 336
WIRE -144 336 -240 336
WIRE 240 336 -144 336
WIRE 288 336 240 336
WIRE 384 336 288 336
WIRE -32 416 -96 416
WIRE 240 416 240 336
WIRE 240 416 192 416
WIRE -96 432 -96 416
WIRE -240 480 -240 416
WIRE -32 480 -240 480
WIRE 288 480 288 416
WIRE 288 480 192 480
WIRE 400 480 288 480
WIRE -352 528 -352 336
WIRE -32 544 -96 544
WIRE 288 544 288 480
WIRE 288 544 192 544
WIRE -240 608 -240 480
WIRE -144 608 -144 336
WIRE -32 608 -144 608
WIRE 224 608 192 608
WIRE 224 704 224 672
WIRE 288 704 288 608
WIRE 288 704 224 704
WIRE -96 752 -96 544
WIRE -96 832 -96 816
FLAG -96 432 0
FLAG 288 704 0
FLAG -352 608 0
FLAG -240 688 0
FLAG -96 832 0
SYMBOL Misc\\NE555 80 512 R0
SYMATTR InstName U1
SYMBOL voltage -352 512 R0
WINDOW 123 0 0 Left 0
WINDOW 39 0 0 Left 0
SYMATTR InstName V1
SYMATTR Value 5
SYMBOL voltage -240 592 R0
WINDOW 123 0 0 Left 0
WINDOW 39 0 0 Left 0
SYMATTR InstName V2
SYMATTR Value PULSE(5 0 0.1 0.01 0.01 0.1 0.2 10)
SYMBOL res 272 320 R0
SYMATTR InstName R1
SYMATTR Value 10k
SYMBOL cap 272 544 R0
SYMATTR InstName C1
SYMATTR Value 47µF
SYMBOL cap 208 608 R0
SYMATTR InstName C2
SYMATTR Value 10nF
SYMBOL res -256 320 R0
SYMATTR InstName R2
SYMATTR Value 10k
SYMBOL LED -112 752 R0
SYMATTR InstName D2
SYMBOL res 368 320 R0
SYMATTR InstName R3
SYMATTR Value 30k
TEXT -384 856 Left 2 !.tran 0 3 0 0.25
