Version 4
SHEET 1 880 776
WIRE 208 176 208 128
WIRE 208 176 0 176
WIRE 352 176 208 176
WIRE 48 256 0 256
WIRE 48 272 48 256
WIRE 512 272 288 272
WIRE 352 288 352 256
WIRE -16 320 -144 320
WIRE -144 336 -144 320
WIRE 288 336 288 272
WIRE 512 336 512 272
WIRE 48 464 48 368
WIRE 48 464 32 464
WIRE 352 464 352 384
WIRE 352 464 320 464
WIRE 32 576 32 544
WIRE 192 576 32 576
WIRE 320 576 320 544
WIRE 320 576 192 576
FLAG 208 48 0
FLAG 512 416 0
FLAG -144 416 0
FLAG 192 736 0
SYMBOL voltage 208 144 R180
WINDOW 0 24 96 Left 2
WINDOW 3 24 16 Left 2
WINDOW 123 0 0 Left 0
WINDOW 39 0 0 Left 0
SYMATTR InstName V1
SYMATTR Value 5
SYMBOL res 16 448 R0
SYMATTR InstName R1
SYMATTR Value 100
SYMBOL res 304 448 R0
SYMATTR InstName R2
SYMATTR Value 100
SYMBOL npn -16 272 R0
SYMATTR InstName Q1
SYMBOL npn 288 288 R0
SYMATTR InstName Q2
SYMBOL voltage 512 320 R0
WINDOW 123 0 0 Left 0
WINDOW 39 0 0 Left 0
SYMATTR InstName V3
SYMATTR Value SINE(0 0.05 1000)
SYMBOL voltage -144 320 R0
WINDOW 123 0 0 Left 0
WINDOW 39 0 0 Left 0
SYMATTR InstName V4
SYMATTR Value SINE(0 0.05 1000)
SYMBOL res -16 160 R0
SYMATTR InstName R3
SYMATTR Value 470
SYMBOL res 336 160 R0
SYMATTR InstName R4
SYMATTR Value 470
SYMBOL res 176 560 R0
SYMATTR InstName R5
SYMATTR Value 470
SYMBOL voltage 192 752 R180
WINDOW 0 24 96 Left 2
WINDOW 3 24 16 Left 2
WINDOW 123 0 0 Left 0
WINDOW 39 0 0 Left 0
SYMATTR InstName V2
SYMATTR Value 5
TEXT -176 760 Left 2 !.tran 0 0.01 0 0.001
