Version 4
SHEET 1 880 680
WIRE 176 48 80 48
WIRE 80 64 80 48
WIRE 176 64 176 48
WIRE 288 64 256 64
WIRE 288 96 288 64
WIRE 80 160 80 144
WIRE 240 192 208 192
WIRE 288 192 288 160
WIRE 288 192 240 192
WIRE 80 272 80 240
WIRE 240 272 240 192
WIRE 240 272 80 272
FLAG 208 192 0
SYMBOL res 160 80 R270
WINDOW 0 32 56 VTop 2
WINDOW 3 0 56 VBottom 2
SYMATTR InstName R1
SYMATTR Value 47
SYMBOL diode 272 96 R0
SYMATTR InstName D1
SYMATTR Value 1N914
SYMBOL voltage 80 48 R0
WINDOW 123 0 0 Left 0
WINDOW 39 0 0 Left 0
SYMATTR InstName V1
SYMATTR Value SINE(0 0.5 1000)
SYMBOL voltage 80 144 R0
WINDOW 123 0 0 Left 0
WINDOW 39 0 0 Left 0
SYMATTR InstName V2
SYMATTR Value 1
TEXT 48 280 Left 2 !.tran 0 0.01 0
