Version 4
SHEET 1 1912 680
WIRE 240 160 240 128
WIRE 288 160 240 160
WIRE 240 208 240 160
WIRE 240 208 64 208
WIRE 288 256 288 240
WIRE 400 256 288 256
WIRE 512 256 464 256
WIRE 512 288 512 256
WIRE -16 304 -160 304
WIRE 64 304 64 288
WIRE 64 304 48 304
WIRE 224 304 64 304
WIRE 64 336 64 304
WIRE -160 352 -160 304
WIRE 288 368 288 352
WIRE 64 496 64 416
WIRE 176 496 64 496
WIRE 288 496 288 448
WIRE 288 496 176 496
FLAG 160 128 0
FLAG 176 496 0
FLAG -160 432 0
FLAG 512 368 0
SYMBOL voltage 256 128 R90
WINDOW 0 -32 56 VBottom 2
WINDOW 3 32 56 VTop 2
WINDOW 123 0 0 Left 0
WINDOW 39 0 0 Left 0
SYMATTR InstName V1
SYMATTR Value 5
SYMBOL res 48 192 R0
SYMATTR InstName R1
SYMATTR Value 20k
SYMBOL res 48 320 R0
SYMATTR InstName R2
SYMATTR Value 20k
SYMBOL res 272 352 R0
SYMATTR InstName R3
SYMATTR Value 100
SYMBOL npn 224 256 R0
SYMATTR InstName Q1
SYMATTR Value 2N3904
SYMBOL res 272 144 R0
SYMATTR InstName R4
SYMATTR Value 200
SYMBOL voltage -160 336 R0
WINDOW 123 24 124 Left 2
WINDOW 39 0 0 Left 0
SYMATTR InstName V2
SYMATTR Value SINE()
SYMATTR Value2 AC 0.05
SYMBOL cap -16 320 R270
WINDOW 0 32 32 VTop 2
WINDOW 3 0 32 VBottom 2
SYMATTR InstName C2
SYMATTR Value 10µF
SYMBOL cap 400 272 R270
WINDOW 0 32 32 VTop 2
WINDOW 3 0 32 VBottom 2
SYMATTR InstName C1
SYMATTR Value 10µF
SYMBOL res 496 272 R0
SYMATTR InstName R5
SYMATTR Value 470
TEXT 48 520 Left 2 !.ac dec 5 0.0005 1000000000
